101
#  Simple cubic Ar oriented X=[100] Y=[010] Z=[001].
Ar  0.00000000  0.00000000  0.00000000
Ar  337.11819000  256.63869000  190.42796000
Ar  215.90428000  214.69048000  599.22702000
Ar  620.83230000  253.04635000  14.09792000
Ar  386.16312000  16.40133000  117.10751000
Ar  250.85881000  500.10615000  556.41429000
Ar  578.68016000  680.89127000  329.86062000
Ar  400.36355000  269.41958000  585.05297000
Ar  958.43891000  431.54298000  386.35575000
Ar  254.56073000  382.89155000  816.44055000
Ar  697.93261000  170.69974000  647.17234000
Ar  125.07285000  301.15574000  553.67271000
Ar  393.57477000  36.05780000  407.69445000
Ar  25.33126000  327.59135000  391.15144000
Ar  976.81249000  655.02701000  439.29653000
Ar  454.17363000  56.18648000  267.87570000
Ar  663.63053000  896.67056000  474.21604000
Ar  834.96178000  637.18507000  27.73517000
Ar  313.19858000  850.03252000  394.70869000
Ar  883.95668000  885.39807000  572.33553000
Ar  667.75230000  256.90452000  404.08016000
Ar  656.72668000  619.43125000  108.36890000
Ar  578.94366000  535.39868000  265.68754000
Ar  324.62318000  138.79638000  160.83602000
Ar  180.57949000  476.22529000  340.37436000
Ar  191.74407000  6.98351000  739.46106000
Ar  132.41411000  758.33968000  240.53964000
Ar  46.36904000  229.89275000  437.05151000
Ar  837.42375000  745.74290000  255.58674000
Ar  411.67152000  735.94267000  426.70067000
Ar  616.94672000  151.90736000  975.15331000
Ar  855.57882000  741.23362000  146.98018000
Ar  87.55439000  62.98477000  715.35505000
Ar  922.04331000  837.77404000  461.59134000
Ar  165.26624000  327.49495000  349.19286000
Ar  132.78175000  334.99144000  867.86500000
Ar  174.30783000  840.78901000  764.89198000
Ar  378.46135000  564.82345000  168.45977000
Ar  852.03083000  10.35801000  273.60951000
Ar  977.10938000  270.89487000  439.89930000
Ar  859.90730000  213.98344000  864.22690000
Ar  162.66637000  941.58164000  995.04351000
Ar  603.22273000  640.71738000  947.54316000
Ar  640.56038000  807.39845000  87.76150000
Ar  551.89700000  495.36452000  101.63852000
Ar  644.62942000  168.22793000  698.52164000
Ar  35.60092000  961.34882000  165.18070000
Ar  120.31847000  899.54130000  395.01429000
Ar  717.23052000  523.12879000  712.19646000
Ar  511.36119000  979.97149000  984.18781000
Ar  511.39507000  47.64325000  667.61741000
Ar  443.55293000  296.53764000  95.17468000
Ar  526.72751000  494.80499000  191.21505000
Ar  244.27260000  408.67805000  820.13625000
Ar  557.32268000  699.34384000  707.17275000
Ar  604.00413000  730.81761000  840.37538000
Ar  311.70341000  311.29593000  519.64482000
Ar  718.48991000  351.45388000  381.28170000
Ar  666.78164000  6.57073000  314.87458000
Ar  407.52126000  126.10682000  608.73721000
Ar  785.11402000  432.50068000  212.58087000
Ar  308.77702000  428.25664000  205.86865000
Ar  219.79712000  313.81501000  539.36418000
Ar  375.60151000  466.41099000  595.71800000
Ar  25.94089000  305.60388000  96.89094000
Ar  754.99316000  825.73113000  560.11768000
Ar  390.41893000  862.82212000  167.04915000
Ar  69.71355000  450.45458000  13.05627000
Ar  472.58339000  81.10988000  37.98989000
Ar  622.87829000  379.79061000  221.03633000
Ar  45.72493000  313.98503000  194.24714000
Ar  365.19066000  157.37782000  511.25725000
Ar  644.16598000  925.65296000  347.05551000
Ar  522.18638000  185.80842000  522.33974000
Ar  629.87351000  199.52584000  156.96210000
Ar  604.17661000  372.35817000  667.28238000
Ar  321.66583000  871.52049000  254.27268000
Ar  423.99982000  745.12125000  431.43526000
Ar  447.86034000  585.77023000  545.93270000
Ar  699.40097000  437.88441000  383.49290000
Ar  547.90777000  466.87334000  638.24985000
Ar  841.27680000  316.11405000  678.94386000
Ar  266.97598000  311.85233000  686.07471000
Ar  696.28930000  748.09560000  471.82325000
Ar  554.27329000  740.27327000  231.62491000
Ar  492.66315000  38.14931000  726.70969000
Ar  282.06476000  817.18506000  868.03770000
Ar  805.31243000  377.56088000  252.86048000
Ar  168.59148000  665.88635000  365.10481000
Ar  170.00767000  181.34453000  42.40392000
Ar  36.04253000  759.81869000  86.70761000
Ar  806.55929000  615.85549000  929.59730000
Ar  670.24483000  28.13570000  932.22328000
Ar  110.13138000  980.85782000  51.71953000
Ar  844.49276000  726.71478000  397.14253000
Ar  767.41747000  753.31828000  594.81064000
Ar  845.08157000  134.54234000  700.32462000
Ar  281.94243000  701.61531000  564.87042000
Ar  125.05652000  379.03877000  764.07669000
Ar  976.64767000  593.49626000  463.06117000
Ar  92.21243000  814.59145000  104.33802000
